LAMMPS (28 Mar 2023 - Development)

units       real #see for specifics: https://docs.lammps.org/units.html
variable    T equal 10
variable    dt equal 2
variable	t_damp equal 100*dt #This is the "suggested" damping parameter for NVT simulations
variable	sigma equal 3.4 #Sigma and Epsilson are specificall for LJ Argon
variable 	epsilon equal 0.24037
variable 	r_cut equal 8.5 # usually ~ 3 * sigma
variable	mass equal 39.95
variable 	lattice_param equal 5.2468 # @10K, 1837 kg/m^3

#Define Geometry
dimension    3
boundary     p p p
lattice      fcc 5.2468 orient x 1 0 0 orient y 0 1 0 orient z 0 0 1
Lattice spacing in x,y,z = 5.2468 5.2468 5.2468
region       box block 0 2 0 2 0 2
create_box   1 box
Created orthogonal box = (0 0 0) to (10.4936 10.4936 10.4936)
create_atoms 1 box
Created 32 atoms
mass         1 39.95

#Set up interatomic potential
pair_style   lj/cut 8.5
pair_coeff   * * 0.24037 3.4
pair_modify  shift yes #shift potential up to y=0 to remove dis-continuity at r_cut
timestep     2

#Dump equilibrium structure
dump equilibrium_data all custom 10 equilibrium.atom id type x y z mass
dump_modify equilibrium_data sort id
run 0
Generated 0 of 0 mixed pair_coeff terms from geometric mixing rule
Step          Temp          E_pair         E_mol          TotEng         Press
0   0             -57.366496      0             -57.366496      382.82435
Loop time of 4.656e-06 on 1 procs for 0 steps with 32 atoms

undump equilibrium_data

#Define and Run Simulation
velocity all create 10 4469 dist gaussian mom yes

#Get temperature correct
fix 1 all nvt temp 10 10 200
	thermo_style custom step temp etotal
	thermo 5000
	run 100000
Generated 0 of 0 mixed pair_coeff terms from geometric mixing rule
Step          Temp          TotEng
0   10            -56.442445
Averages over the last 11 of 21 rows, steps 50000 to 100000:
Temp TotEng
10.0038 -55.4991
Loop time of 1.84865 on 1 procs for 100000 steps with 32 atoms

unfix 1

#Equilibrate
fix 1 all nve
	thermo_style custom step temp etotal
	thermo 5000
	run 100000
Generated 0 of 0 mixed pair_coeff terms from geometric mixing rule
Step          Temp          TotEng
100000   10.470637     -55.608031
Averages over the last 11 of 21 rows, steps 150000 to 200000:
Temp TotEng
9.59191 -55.6082
Loop time of 1.74052 on 1 procs for 100000 steps with 32 atoms

unfix 1

compute 1 all temp
compute 2 all pe
compute 3 all ke

fix 1 all nvt temp 10 10 200
	reset_timestep 0
	dump atom_data all custom 10 dump.atom id type xu yu zu
	dump_modify atom_data sort id
    # dump visualize all xyz 100 positions.xyz
    fix thermo_data all ave/time 1 1 1 c_1 c_2 c_3 file thermo_data.txt title1 		 "#Thermo information" title2 "#TimeStep Temp PE KE"
	run 10000
Generated 0 of 0 mixed pair_coeff terms from geometric mixing rule
Step          Temp          TotEng
0   10.123142     -55.608203
Loop time of 16.272 on 1 procs for 10000 steps with 32 atoms

unfix 1
